gem5 Simulator System.  http://gem5.org
gem5 is copyrighted software; use the --copyright option for details.

gem5 compiled Mar  5 2025 13:53:40
gem5 started Apr  7 2025 03:54:33
gem5 executing on olympus.ece.tamu.edu, pid 5490
command line: /home/grads/s/srihariharan05/Thesis/docker_smaug/smaug/gem5-aladdin/src/aladdin/../../backup_gem5_builds/gem5.opt --debug-flags=Aladdin,HybridDatapath --outdir=/home/grads/s/srihariharan05/Thesis/docker_smaug/smaug/experiments/models/MobileNetV2/outputs --stats-db-file=stats.db /home/grads/s/srihariharan05/Thesis/docker_smaug/smaug/gem5-aladdin/src/aladdin/../../configs/aladdin/aladdin_se.py --num-cpus=1 --mem-size=16GB --mem-type=LPDDR4_3200_2x16 --sys-clock=1.75GHz --cpu-clock=3.53GHz --cpu-type=DerivO3CPU --ruby --access-backing-store --caches --l2cache --enable_prefetchers --l1d_size=96kB --l1i_size=192kB --l2_size=12MB --l3_size=6MB --l1d-hwp-type=StridePrefetcher --l2-hwp-type=SignaturePathPrefetcher --accel_cfg_file=gem5.cfg --fast-forward=10000000000 -c /home/grads/s/srihariharan05/Thesis/docker_smaug/smaug/experiments/../build/bin/smaug -o 'mobilenetV2_no_bn_smv_topo.pbtxt mobilenetV2_no_bn_smv_params.pb --sample-level=very_high --sample-num=1 --gem5 --debug-level=1 --num-accels=1'

info: Standard input is not a terminal, disabling listeners.
CPUClass 
AtomicSimpleCPU
 FutureClass 
DerivO3CPU
 
Global frequency set at 1000000000000 ticks per second
-------------------------------
      Setting ScratchPad       
-------------------------------
      0: system: Registered accelerator 3
      0: system.acc0_datapath: Registering stats.
Switch at instruction count:10000000000
Model topology file: mobilenetV2_no_bn_smv_topo.pbtxt
Model parameters file: mobilenetV2_no_bn_smv_params.pb
Sampling level: very_high, number of sample iterations: 1
Number of accelerators: 1
======================================================
      Loading the network model...
======================================================
Adding input (Data).
Adding data (Data).
Adding conv0 (Convolution3d).
Adding data_1 (Data).
Adding bn0_add_tensor (EltwiseAdd).
Adding bn0_relu (ReLU).
Adding data_2 (Data).
Adding depth_wise_conv11 (ConvolutionDepthwise).
Adding data_3 (Data).
Adding depth_wise_bn11 (EltwiseAdd).
Adding dw_relubn11 (ReLU).
Adding data_4 (Data).
Adding contr_conv11 (Convolution3d).
Adding data_5 (Data).
Adding contr_bn11 (EltwiseAdd).
Adding contr_relubn11 (ReLU).
Adding data_6 (Data).
Adding exp_conv21 (Convolution3d).
Adding data_7 (Data).
Adding exp_bn21 (EltwiseAdd).
Adding bn0_relu_1 (ReLU).
Adding data_8 (Data).
Adding depth_wise_conv21 (ConvolutionDepthwise).
Adding data_9 (Data).
Adding depth_wise_bn21 (EltwiseAdd).
Adding dw_relubn21 (ReLU).
Adding data_10 (Data).
Adding contr_conv21 (Convolution3d).
Adding data_11 (Data).
Adding contr_bn21 (EltwiseAdd).
Adding contr_relubn21 (ReLU).
Adding data_12 (Data).
Adding exp_conv22 (Convolution3d).
Adding data_13 (Data).
Adding exp_bn22 (EltwiseAdd).
Adding bn0_relu_2 (ReLU).
Adding data_14 (Data).
Adding depth_wise_conv22 (ConvolutionDepthwise).
Adding data_15 (Data).
Adding depth_wise_bn22 (EltwiseAdd).
Adding dw_relubn22 (ReLU).
Adding data_16 (Data).
Adding contr_conv22 (Convolution3d).
Adding data_17 (Data).
Adding contr_bn22 (EltwiseAdd).
Adding contr_relubn22 (ReLU).
Adding add2_2 (EltwiseAdd).
Adding data_18 (Data).
Adding exp_conv31 (Convolution3d).
Adding data_19 (Data).
Adding exp_bn31 (EltwiseAdd).
Adding bn0_relu_3 (ReLU).
Adding data_20 (Data).
Adding depth_wise_conv31 (ConvolutionDepthwise).
Adding data_21 (Data).
Adding depth_wise_bn31 (EltwiseAdd).
Adding dw_relubn31 (ReLU).
Adding data_22 (Data).
Adding contr_conv31 (Convolution3d).
Adding data_23 (Data).
Adding contr_bn31 (EltwiseAdd).
Adding contr_relubn31 (ReLU).
Adding data_24 (Data).
Adding exp_conv32 (Convolution3d).
Adding data_25 (Data).
Adding exp_bn32 (EltwiseAdd).
Adding bn0_relu_4 (ReLU).
Adding data_26 (Data).
Adding depth_wise_conv32 (ConvolutionDepthwise).
Adding data_27 (Data).
Adding depth_wise_bn32 (EltwiseAdd).
Adding dw_relubn32 (ReLU).
Adding data_28 (Data).
Adding contr_conv32 (Convolution3d).
Adding data_29 (Data).
Adding contr_bn32 (EltwiseAdd).
Adding contr_relubn32 (ReLU).
Adding add3_2 (EltwiseAdd).
Adding data_30 (Data).
Adding exp_conv33 (Convolution3d).
Adding data_31 (Data).
Adding exp_bn33 (EltwiseAdd).
Adding bn0_relu_5 (ReLU).
Adding data_32 (Data).
Adding depth_wise_conv33 (ConvolutionDepthwise).
Adding data_33 (Data).
Adding depth_wise_bn33 (EltwiseAdd).
Adding dw_relubn33 (ReLU).
Adding data_34 (Data).
Adding contr_conv33 (Convolution3d).
Adding data_35 (Data).
Adding contr_bn33 (EltwiseAdd).
Adding contr_relubn33 (ReLU).
Adding add3_3 (EltwiseAdd).
Adding data_36 (Data).
Adding exp_conv41 (Convolution3d).
Adding data_37 (Data).
Adding exp_bn41 (EltwiseAdd).
Adding bn0_relu_6 (ReLU).
Adding data_38 (Data).
Adding depth_wise_conv41 (ConvolutionDepthwise).
Adding data_39 (Data).
Adding depth_wise_bn41 (EltwiseAdd).
Adding dw_relubn41 (ReLU).
Adding data_40 (Data).
Adding contr_conv41 (Convolution3d).
Adding data_41 (Data).
Adding contr_bn41 (EltwiseAdd).
Adding contr_relubn41 (ReLU).
Adding data_42 (Data).
Adding exp_conv42 (Convolution3d).
Adding data_43 (Data).
Adding exp_bn42 (EltwiseAdd).
Adding bn0_relu_7 (ReLU).
Adding data_44 (Data).
Adding depth_wise_conv42 (ConvolutionDepthwise).
Adding data_45 (Data).
Adding depth_wise_bn42 (EltwiseAdd).
Adding dw_relubn42 (ReLU).
Adding data_46 (Data).
Adding contr_conv42 (Convolution3d).
Adding data_47 (Data).
Adding contr_bn42 (EltwiseAdd).
Adding contr_relubn42 (ReLU).
Adding add4_2 (EltwiseAdd).
Adding data_48 (Data).
Adding exp_conv43 (Convolution3d).
Adding data_49 (Data).
Adding exp_bn43 (EltwiseAdd).
Adding bn0_relu_8 (ReLU).
Adding data_50 (Data).
Adding depth_wise_conv43 (ConvolutionDepthwise).
Adding data_51 (Data).
Adding depth_wise_bn43 (EltwiseAdd).
Adding dw_relubn43 (ReLU).
Adding data_52 (Data).
Adding contr_conv43 (Convolution3d).
Adding data_53 (Data).
Adding contr_bn43 (EltwiseAdd).
Adding contr_relubn43 (ReLU).
Adding add4_3 (EltwiseAdd).
Adding data_54 (Data).
Adding exp_conv44 (Convolution3d).
Adding data_55 (Data).
Adding exp_bn44 (EltwiseAdd).
Adding bn0_relu_9 (ReLU).
Adding data_56 (Data).
Adding depth_wise_conv44 (ConvolutionDepthwise).
Adding data_57 (Data).
Adding depth_wise_bn44 (EltwiseAdd).
Adding dw_relubn44 (ReLU).
Adding data_58 (Data).
Adding contr_conv44 (Convolution3d).
Adding data_59 (Data).
Adding contr_bn44 (EltwiseAdd).
Adding contr_relubn44 (ReLU).
Adding add4_4 (EltwiseAdd).
Adding data_60 (Data).
Adding exp_conv51 (Convolution3d).
Adding data_61 (Data).
Adding exp_bn51 (EltwiseAdd).
Adding bn0_relu_10 (ReLU).
Adding data_62 (Data).
Adding depth_wise_conv51 (ConvolutionDepthwise).
Adding data_63 (Data).
Adding depth_wise_bn51 (EltwiseAdd).
Adding dw_relubn51 (ReLU).
Adding data_64 (Data).
Adding contr_conv51 (Convolution3d).
Adding data_65 (Data).
Adding contr_bn51 (EltwiseAdd).
Adding contr_relubn51 (ReLU).
Adding data_66 (Data).
Adding exp_conv52 (Convolution3d).
Adding data_67 (Data).
Adding exp_bn52 (EltwiseAdd).
Adding bn0_relu_11 (ReLU).
Adding data_68 (Data).
Adding depth_wise_conv52 (ConvolutionDepthwise).
Adding data_69 (Data).
Adding depth_wise_bn52 (EltwiseAdd).
Adding dw_relubn52 (ReLU).
Adding data_70 (Data).
Adding contr_conv52 (Convolution3d).
Adding data_71 (Data).
Adding contr_bn52 (EltwiseAdd).
Adding contr_relubn52 (ReLU).
Adding add5_2 (EltwiseAdd).
Adding data_72 (Data).
Adding exp_conv53 (Convolution3d).
Adding data_73 (Data).
Adding exp_bn53 (EltwiseAdd).
Adding bn0_relu_12 (ReLU).
Adding data_74 (Data).
Adding depth_wise_conv53 (ConvolutionDepthwise).
Adding data_75 (Data).
Adding depth_wise_bn53 (EltwiseAdd).
Adding dw_relubn53 (ReLU).
Adding data_76 (Data).
Adding contr_conv53 (Convolution3d).
Adding data_77 (Data).
Adding contr_bn53 (EltwiseAdd).
Adding contr_relubn53 (ReLU).
Adding add5_3 (EltwiseAdd).
Adding data_78 (Data).
Adding exp_conv61 (Convolution3d).
Adding data_79 (Data).
Adding exp_bn61 (EltwiseAdd).
Adding bn0_relu_13 (ReLU).
Adding data_80 (Data).
Adding depth_wise_conv61 (ConvolutionDepthwise).
Adding data_81 (Data).
Adding depth_wise_bn61 (EltwiseAdd).
Adding dw_relubn61 (ReLU).
Adding data_82 (Data).
Adding contr_conv61 (Convolution3d).
Adding data_83 (Data).
Adding contr_bn61 (EltwiseAdd).
Adding contr_relubn61 (ReLU).
Adding data_84 (Data).
Adding exp_conv62 (Convolution3d).
Adding data_85 (Data).
Adding exp_bn62 (EltwiseAdd).
Adding bn0_relu_14 (ReLU).
Adding data_86 (Data).
Adding depth_wise_conv62 (ConvolutionDepthwise).
Adding data_87 (Data).
Adding depth_wise_bn62 (EltwiseAdd).
Adding dw_relubn62 (ReLU).
Adding data_88 (Data).
Adding contr_conv62 (Convolution3d).
Adding data_89 (Data).
Adding contr_bn62 (EltwiseAdd).
Adding contr_relubn62 (ReLU).
Adding add6_2 (EltwiseAdd).
Adding data_90 (Data).
Adding exp_conv63 (Convolution3d).
Adding data_91 (Data).
Adding exp_bn63 (EltwiseAdd).
Adding bn0_relu_15 (ReLU).
Adding data_92 (Data).
Adding depth_wise_conv63 (ConvolutionDepthwise).
Adding data_93 (Data).
Adding depth_wise_bn63 (EltwiseAdd).
Adding dw_relubn63 (ReLU).
Adding data_94 (Data).
Adding contr_conv63 (Convolution3d).
Adding data_95 (Data).
Adding contr_bn63 (EltwiseAdd).
Adding contr_relubn63 (ReLU).
Adding add6_3 (EltwiseAdd).
Adding data_96 (Data).
Adding exp_conv71 (Convolution3d).
Adding data_97 (Data).
Adding exp_bn71 (EltwiseAdd).
Adding bn0_relu_16 (ReLU).
Adding data_98 (Data).
Adding depth_wise_conv71 (ConvolutionDepthwise).
Adding data_99 (Data).
Adding depth_wise_bn71 (EltwiseAdd).
Adding dw_relubn71 (ReLU).
Adding data_100 (Data).
Adding contr_conv71 (Convolution3d).
Adding data_101 (Data).
Adding contr_bn71 (EltwiseAdd).
Adding contr_relubn71 (ReLU).
Adding data_102 (Data).
Adding conv8 (Convolution3d).
Adding data_103 (Data).
Adding bn8_add_tensor (EltwiseAdd).
Adding  bn8_relu (ReLU).
Adding avg_pool (AveragePooling).
Adding data_104 (Data).
Adding conv10 (Convolution3d).
Adding data_105 (Data).
Adding bn10_add_tensor (EltwiseAdd).
Adding bn10_rleu (ReLU).
======================================================
      Summary of the network.
======================================================
____________________________________________________________________________________________
Layer (type)                             Output shape                 Parameters  
____________________________________________________________________________________________
data_105 (Data)                          (1, 1, 1, 1000)                  0       
____________________________________________________________________________________________
data_104 (Data)                          (1000, 1, 1, 1280)               0       
____________________________________________________________________________________________
data_103 (Data)                          (1, 7, 7, 1280)                  0       
____________________________________________________________________________________________
data_102 (Data)                          (1280, 1, 1, 320)                0       
____________________________________________________________________________________________
data_101 (Data)                          (1, 7, 7, 320)                   0       
____________________________________________________________________________________________
data_100 (Data)                          (320, 1, 1, 960)                 0       
____________________________________________________________________________________________
data_99 (Data)                           (1, 7, 7, 960)                   0       
____________________________________________________________________________________________
data_98 (Data)                           (1, 3, 3, 960)                   0       
____________________________________________________________________________________________
data_97 (Data)                           (1, 7, 7, 960)                   0       
____________________________________________________________________________________________
data_96 (Data)                           (960, 1, 1, 160)                 0       
____________________________________________________________________________________________
data_95 (Data)                           (1, 7, 7, 160)                   0       
____________________________________________________________________________________________
data_94 (Data)                           (160, 1, 1, 960)                 0       
____________________________________________________________________________________________
data_93 (Data)                           (1, 7, 7, 960)                   0       
____________________________________________________________________________________________
data_92 (Data)                           (1, 3, 3, 960)                   0       
____________________________________________________________________________________________
data_91 (Data)                           (1, 7, 7, 960)                   0       
____________________________________________________________________________________________
data_90 (Data)                           (960, 1, 1, 160)                 0       
____________________________________________________________________________________________
data_89 (Data)                           (1, 7, 7, 160)                   0       
____________________________________________________________________________________________
data_88 (Data)                           (160, 1, 1, 960)                 0       
____________________________________________________________________________________________
data_87 (Data)                           (1, 7, 7, 960)                   0       
____________________________________________________________________________________________
data_86 (Data)                           (1, 3, 3, 960)                   0       
____________________________________________________________________________________________
data_85 (Data)                           (1, 7, 7, 960)                   0       
____________________________________________________________________________________________
data_84 (Data)                           (960, 1, 1, 160)                 0       
____________________________________________________________________________________________
data_83 (Data)                           (1, 7, 7, 160)                   0       
____________________________________________________________________________________________
data_82 (Data)                           (160, 1, 1, 576)                 0       
____________________________________________________________________________________________
data_81 (Data)                           (1, 7, 7, 576)                   0       
____________________________________________________________________________________________
data_80 (Data)                           (1, 3, 3, 576)                   0       
____________________________________________________________________________________________
data_79 (Data)                           (1, 14, 14, 576)                 0       
____________________________________________________________________________________________
data_78 (Data)                           (576, 1, 1, 96)                  0       
____________________________________________________________________________________________
data_77 (Data)                           (1, 14, 14, 96)                  0       
____________________________________________________________________________________________
data_76 (Data)                           (96, 1, 1, 576)                  0       
____________________________________________________________________________________________
data_75 (Data)                           (1, 14, 14, 576)                 0       
____________________________________________________________________________________________
data_74 (Data)                           (1, 3, 3, 576)                   0       
____________________________________________________________________________________________
data_73 (Data)                           (1, 14, 14, 576)                 0       
____________________________________________________________________________________________
data_72 (Data)                           (576, 1, 1, 96)                  0       
____________________________________________________________________________________________
data_71 (Data)                           (1, 14, 14, 96)                  0       
____________________________________________________________________________________________
data_70 (Data)                           (96, 1, 1, 576)                  0       
____________________________________________________________________________________________
data_69 (Data)                           (1, 14, 14, 576)                 0       
____________________________________________________________________________________________
data_68 (Data)                           (1, 3, 3, 576)                   0       
____________________________________________________________________________________________
data_67 (Data)                           (1, 14, 14, 576)                 0       
____________________________________________________________________________________________
data_66 (Data)                           (576, 1, 1, 96)                  0       
____________________________________________________________________________________________
data_65 (Data)                           (1, 14, 14, 96)                  0       
____________________________________________________________________________________________
data_64 (Data)                           (96, 1, 1, 384)                  0       
____________________________________________________________________________________________
data_63 (Data)                           (1, 14, 14, 384)                 0       
____________________________________________________________________________________________
data_62 (Data)                           (1, 3, 3, 384)                   0       
____________________________________________________________________________________________
data_61 (Data)                           (1, 14, 14, 384)                 0       
____________________________________________________________________________________________
data_60 (Data)                           (384, 1, 1, 64)                  0       
____________________________________________________________________________________________
data_59 (Data)                           (1, 14, 14, 64)                  0       
____________________________________________________________________________________________
data_58 (Data)                           (64, 1, 1, 384)                  0       
____________________________________________________________________________________________
data_57 (Data)                           (1, 14, 14, 384)                 0       
____________________________________________________________________________________________
data_56 (Data)                           (1, 3, 3, 384)                   0       
____________________________________________________________________________________________
data_55 (Data)                           (1, 14, 14, 384)                 0       
____________________________________________________________________________________________
data_54 (Data)                           (384, 1, 1, 64)                  0       
____________________________________________________________________________________________
data_53 (Data)                           (1, 14, 14, 64)                  0       
____________________________________________________________________________________________
data_52 (Data)                           (64, 1, 1, 384)                  0       
____________________________________________________________________________________________
data_51 (Data)                           (1, 14, 14, 384)                 0       
____________________________________________________________________________________________
data_50 (Data)                           (1, 3, 3, 384)                   0       
____________________________________________________________________________________________
data_49 (Data)                           (1, 14, 14, 384)                 0       
____________________________________________________________________________________________
data_48 (Data)                           (384, 1, 1, 64)                  0       
____________________________________________________________________________________________
data_47 (Data)                           (1, 14, 14, 64)                  0       
____________________________________________________________________________________________
data_46 (Data)                           (64, 1, 1, 384)                  0       
____________________________________________________________________________________________
data_45 (Data)                           (1, 14, 14, 384)                 0       
____________________________________________________________________________________________
data_44 (Data)                           (1, 3, 3, 384)                   0       
____________________________________________________________________________________________
data_43 (Data)                           (1, 14, 14, 384)                 0       
____________________________________________________________________________________________
data_42 (Data)                           (384, 1, 1, 64)                  0       
____________________________________________________________________________________________
data_41 (Data)                           (1, 14, 14, 64)                  0       
____________________________________________________________________________________________
data_40 (Data)                           (64, 1, 1, 192)                  0       
____________________________________________________________________________________________
data_39 (Data)                           (1, 14, 14, 192)                 0       
____________________________________________________________________________________________
data_38 (Data)                           (1, 3, 3, 192)                   0       
____________________________________________________________________________________________
data_37 (Data)                           (1, 28, 28, 192)                 0       
____________________________________________________________________________________________
data_36 (Data)                           (192, 1, 1, 32)                  0       
____________________________________________________________________________________________
data_35 (Data)                           (1, 28, 28, 32)                  0       
____________________________________________________________________________________________
data_34 (Data)                           (32, 1, 1, 192)                  0       
____________________________________________________________________________________________
data_33 (Data)                           (1, 28, 28, 192)                 0       
____________________________________________________________________________________________
data_32 (Data)                           (1, 3, 3, 192)                   0       
____________________________________________________________________________________________
data_31 (Data)                           (1, 28, 28, 192)                 0       
____________________________________________________________________________________________
data_30 (Data)                           (192, 1, 1, 32)                  0       
____________________________________________________________________________________________
data_29 (Data)                           (1, 28, 28, 32)                  0       
____________________________________________________________________________________________
data_28 (Data)                           (32, 1, 1, 192)                  0       
____________________________________________________________________________________________
data_27 (Data)                           (1, 28, 28, 192)                 0       
____________________________________________________________________________________________
data_26 (Data)                           (1, 3, 3, 192)                   0       
____________________________________________________________________________________________
data_25 (Data)                           (1, 28, 28, 192)                 0       
____________________________________________________________________________________________
data_24 (Data)                           (192, 1, 1, 32)                  0       
____________________________________________________________________________________________
data_23 (Data)                           (1, 28, 28, 32)                  0       
____________________________________________________________________________________________
data_22 (Data)                           (32, 1, 1, 144)                  0       
____________________________________________________________________________________________
data_21 (Data)                           (1, 28, 28, 144)                 0       
____________________________________________________________________________________________
data_20 (Data)                           (1, 3, 3, 144)                   0       
____________________________________________________________________________________________
data_19 (Data)                           (1, 56, 56, 144)                 0       
____________________________________________________________________________________________
data_18 (Data)                           (144, 1, 1, 24)                  0       
____________________________________________________________________________________________
data_17 (Data)                           (1, 56, 56, 24)                  0       
____________________________________________________________________________________________
data_16 (Data)                           (24, 1, 1, 144)                  0       
____________________________________________________________________________________________
data_15 (Data)                           (1, 56, 56, 144)                 0       
____________________________________________________________________________________________
data_14 (Data)                           (1, 3, 3, 144)                   0       
____________________________________________________________________________________________
data_13 (Data)                           (1, 56, 56, 144)                 0       
____________________________________________________________________________________________
data_12 (Data)                           (144, 1, 1, 24)                  0       
____________________________________________________________________________________________
data_11 (Data)                           (1, 56, 56, 24)                  0       
____________________________________________________________________________________________
data_10 (Data)                           (24, 1, 1, 96)                   0       
____________________________________________________________________________________________
data_9 (Data)                            (1, 56, 56, 96)                  0       
____________________________________________________________________________________________
data_8 (Data)                            (1, 3, 3, 96)                    0       
____________________________________________________________________________________________
data_7 (Data)                            (1, 112, 112, 96)                0       
____________________________________________________________________________________________
data_6 (Data)                            (96, 1, 1, 16)                   0       
____________________________________________________________________________________________
data_5 (Data)                            (1, 112, 112, 16)                0       
____________________________________________________________________________________________
data_4 (Data)                            (16, 1, 1, 32)                   0       
____________________________________________________________________________________________
data_3 (Data)                            (1, 112, 112, 32)                0       
____________________________________________________________________________________________
data_2 (Data)                            (1, 3, 3, 32)                    0       
____________________________________________________________________________________________
data_1 (Data)                            (1, 112, 112, 32)                0       
____________________________________________________________________________________________
data (Data)                              (32, 3, 3, 3)                    0       
____________________________________________________________________________________________
input (Data)                             (1, 224, 224, 3)                 0       
____________________________________________________________________________________________
conv0 (Convolution3d)                    (1, 112, 112, 32)               864      
____________________________________________________________________________________________
bn0_add_tensor (EltwiseAdd)              (1, 112, 112, 32)                0       
____________________________________________________________________________________________
bn0_relu (ReLU)                          (1, 112, 112, 32)                0       
____________________________________________________________________________________________
depth_wise_conv11 (ConvolutionDepthwise) (1, 112, 112, 32)               288      
____________________________________________________________________________________________
depth_wise_bn11 (EltwiseAdd)             (1, 112, 112, 32)                0       
____________________________________________________________________________________________
dw_relubn11 (ReLU)                       (1, 112, 112, 32)                0       
____________________________________________________________________________________________
contr_conv11 (Convolution3d)             (1, 112, 112, 16)               512      
____________________________________________________________________________________________
contr_bn11 (EltwiseAdd)                  (1, 112, 112, 16)                0       
____________________________________________________________________________________________
contr_relubn11 (ReLU)                    (1, 112, 112, 16)                0       
____________________________________________________________________________________________
exp_conv21 (Convolution3d)               (1, 112, 112, 96)               1536     
____________________________________________________________________________________________
exp_bn21 (EltwiseAdd)                    (1, 112, 112, 96)                0       
____________________________________________________________________________________________
bn0_relu_1 (ReLU)                        (1, 112, 112, 96)                0       
____________________________________________________________________________________________
depth_wise_conv21 (ConvolutionDepthwise) (1, 56, 56, 96)                 864      
____________________________________________________________________________________________
depth_wise_bn21 (EltwiseAdd)             (1, 56, 56, 96)                  0       
____________________________________________________________________________________________
dw_relubn21 (ReLU)                       (1, 56, 56, 96)                  0       
____________________________________________________________________________________________
contr_conv21 (Convolution3d)             (1, 56, 56, 24)                 2304     
____________________________________________________________________________________________
contr_bn21 (EltwiseAdd)                  (1, 56, 56, 24)                  0       
____________________________________________________________________________________________
contr_relubn21 (ReLU)                    (1, 56, 56, 24)                  0       
____________________________________________________________________________________________
exp_conv22 (Convolution3d)               (1, 56, 56, 144)                3456     
____________________________________________________________________________________________
exp_bn22 (EltwiseAdd)                    (1, 56, 56, 144)                 0       
____________________________________________________________________________________________
bn0_relu_2 (ReLU)                        (1, 56, 56, 144)                 0       
____________________________________________________________________________________________
depth_wise_conv22 (ConvolutionDepthwise) (1, 56, 56, 144)                1296     
____________________________________________________________________________________________
depth_wise_bn22 (EltwiseAdd)             (1, 56, 56, 144)                 0       
____________________________________________________________________________________________
dw_relubn22 (ReLU)                       (1, 56, 56, 144)                 0       
____________________________________________________________________________________________
contr_conv22 (Convolution3d)             (1, 56, 56, 24)                 3456     
____________________________________________________________________________________________
contr_bn22 (EltwiseAdd)                  (1, 56, 56, 24)                  0       
____________________________________________________________________________________________
contr_relubn22 (ReLU)                    (1, 56, 56, 24)                  0       
____________________________________________________________________________________________
add2_2 (EltwiseAdd)                      (1, 56, 56, 24)                  0       
____________________________________________________________________________________________
exp_conv31 (Convolution3d)               (1, 56, 56, 144)                3456     
____________________________________________________________________________________________
exp_bn31 (EltwiseAdd)                    (1, 56, 56, 144)                 0       
____________________________________________________________________________________________
bn0_relu_3 (ReLU)                        (1, 56, 56, 144)                 0       
____________________________________________________________________________________________
depth_wise_conv31 (ConvolutionDepthwise) (1, 28, 28, 144)                1296     
____________________________________________________________________________________________
depth_wise_bn31 (EltwiseAdd)             (1, 28, 28, 144)                 0       
____________________________________________________________________________________________
dw_relubn31 (ReLU)                       (1, 28, 28, 144)                 0       
____________________________________________________________________________________________
contr_conv31 (Convolution3d)             (1, 28, 28, 32)                 4608     
____________________________________________________________________________________________
contr_bn31 (EltwiseAdd)                  (1, 28, 28, 32)                  0       
____________________________________________________________________________________________
contr_relubn31 (ReLU)                    (1, 28, 28, 32)                  0       
____________________________________________________________________________________________
exp_conv32 (Convolution3d)               (1, 28, 28, 192)                6144     
____________________________________________________________________________________________
exp_bn32 (EltwiseAdd)                    (1, 28, 28, 192)                 0       
____________________________________________________________________________________________
bn0_relu_4 (ReLU)                        (1, 28, 28, 192)                 0       
____________________________________________________________________________________________
depth_wise_conv32 (ConvolutionDepthwise) (1, 28, 28, 192)                1728     
____________________________________________________________________________________________
depth_wise_bn32 (EltwiseAdd)             (1, 28, 28, 192)                 0       
____________________________________________________________________________________________
dw_relubn32 (ReLU)                       (1, 28, 28, 192)                 0       
____________________________________________________________________________________________
contr_conv32 (Convolution3d)             (1, 28, 28, 32)                 6144     
____________________________________________________________________________________________
contr_bn32 (EltwiseAdd)                  (1, 28, 28, 32)                  0       
____________________________________________________________________________________________
contr_relubn32 (ReLU)                    (1, 28, 28, 32)                  0       
____________________________________________________________________________________________
add3_2 (EltwiseAdd)                      (1, 28, 28, 32)                  0       
____________________________________________________________________________________________
exp_conv33 (Convolution3d)               (1, 28, 28, 192)                6144     
____________________________________________________________________________________________
exp_bn33 (EltwiseAdd)                    (1, 28, 28, 192)                 0       
____________________________________________________________________________________________
bn0_relu_5 (ReLU)                        (1, 28, 28, 192)                 0       
____________________________________________________________________________________________
depth_wise_conv33 (ConvolutionDepthwise) (1, 28, 28, 192)                1728     
____________________________________________________________________________________________
depth_wise_bn33 (EltwiseAdd)             (1, 28, 28, 192)                 0       
____________________________________________________________________________________________
dw_relubn33 (ReLU)                       (1, 28, 28, 192)                 0       
____________________________________________________________________________________________
contr_conv33 (Convolution3d)             (1, 28, 28, 32)                 6144     
____________________________________________________________________________________________
contr_bn33 (EltwiseAdd)                  (1, 28, 28, 32)                  0       
____________________________________________________________________________________________
contr_relubn33 (ReLU)                    (1, 28, 28, 32)                  0       
____________________________________________________________________________________________
add3_3 (EltwiseAdd)                      (1, 28, 28, 32)                  0       
____________________________________________________________________________________________
exp_conv41 (Convolution3d)               (1, 28, 28, 192)                6144     
____________________________________________________________________________________________
exp_bn41 (EltwiseAdd)                    (1, 28, 28, 192)                 0       
____________________________________________________________________________________________
bn0_relu_6 (ReLU)                        (1, 28, 28, 192)                 0       
____________________________________________________________________________________________
depth_wise_conv41 (ConvolutionDepthwise) (1, 14, 14, 192)                1728     
____________________________________________________________________________________________
depth_wise_bn41 (EltwiseAdd)             (1, 14, 14, 192)                 0       
____________________________________________________________________________________________
dw_relubn41 (ReLU)                       (1, 14, 14, 192)                 0       
____________________________________________________________________________________________
contr_conv41 (Convolution3d)             (1, 14, 14, 64)                12288     
____________________________________________________________________________________________
contr_bn41 (EltwiseAdd)                  (1, 14, 14, 64)                  0       
____________________________________________________________________________________________
contr_relubn41 (ReLU)                    (1, 14, 14, 64)                  0       
____________________________________________________________________________________________
exp_conv42 (Convolution3d)               (1, 14, 14, 384)               24576     
____________________________________________________________________________________________
exp_bn42 (EltwiseAdd)                    (1, 14, 14, 384)                 0       
____________________________________________________________________________________________
bn0_relu_7 (ReLU)                        (1, 14, 14, 384)                 0       
____________________________________________________________________________________________
depth_wise_conv42 (ConvolutionDepthwise) (1, 14, 14, 384)                3456     
____________________________________________________________________________________________
depth_wise_bn42 (EltwiseAdd)             (1, 14, 14, 384)                 0       
____________________________________________________________________________________________
dw_relubn42 (ReLU)                       (1, 14, 14, 384)                 0       
____________________________________________________________________________________________
contr_conv42 (Convolution3d)             (1, 14, 14, 64)                24576     
____________________________________________________________________________________________
contr_bn42 (EltwiseAdd)                  (1, 14, 14, 64)                  0       
____________________________________________________________________________________________
contr_relubn42 (ReLU)                    (1, 14, 14, 64)                  0       
____________________________________________________________________________________________
add4_2 (EltwiseAdd)                      (1, 14, 14, 64)                  0       
____________________________________________________________________________________________
exp_conv43 (Convolution3d)               (1, 14, 14, 384)               24576     
____________________________________________________________________________________________
exp_bn43 (EltwiseAdd)                    (1, 14, 14, 384)                 0       
____________________________________________________________________________________________
bn0_relu_8 (ReLU)                        (1, 14, 14, 384)                 0       
____________________________________________________________________________________________
depth_wise_conv43 (ConvolutionDepthwise) (1, 14, 14, 384)                3456     
____________________________________________________________________________________________
depth_wise_bn43 (EltwiseAdd)             (1, 14, 14, 384)                 0       
____________________________________________________________________________________________
dw_relubn43 (ReLU)                       (1, 14, 14, 384)                 0       
____________________________________________________________________________________________
contr_conv43 (Convolution3d)             (1, 14, 14, 64)                24576     
____________________________________________________________________________________________
contr_bn43 (EltwiseAdd)                  (1, 14, 14, 64)                  0       
____________________________________________________________________________________________
contr_relubn43 (ReLU)                    (1, 14, 14, 64)                  0       
____________________________________________________________________________________________
add4_3 (EltwiseAdd)                      (1, 14, 14, 64)                  0       
____________________________________________________________________________________________
exp_conv44 (Convolution3d)               (1, 14, 14, 384)               24576     
____________________________________________________________________________________________
exp_bn44 (EltwiseAdd)                    (1, 14, 14, 384)                 0       
____________________________________________________________________________________________
bn0_relu_9 (ReLU)                        (1, 14, 14, 384)                 0       
____________________________________________________________________________________________
depth_wise_conv44 (ConvolutionDepthwise) (1, 14, 14, 384)                3456     
____________________________________________________________________________________________
depth_wise_bn44 (EltwiseAdd)             (1, 14, 14, 384)                 0       
____________________________________________________________________________________________
dw_relubn44 (ReLU)                       (1, 14, 14, 384)                 0       
____________________________________________________________________________________________
contr_conv44 (Convolution3d)             (1, 14, 14, 64)                24576     
____________________________________________________________________________________________
contr_bn44 (EltwiseAdd)                  (1, 14, 14, 64)                  0       
____________________________________________________________________________________________
contr_relubn44 (ReLU)                    (1, 14, 14, 64)                  0       
____________________________________________________________________________________________
add4_4 (EltwiseAdd)                      (1, 14, 14, 64)                  0       
____________________________________________________________________________________________
exp_conv51 (Convolution3d)               (1, 14, 14, 384)               24576     
____________________________________________________________________________________________
exp_bn51 (EltwiseAdd)                    (1, 14, 14, 384)                 0       
____________________________________________________________________________________________
bn0_relu_10 (ReLU)                       (1, 14, 14, 384)                 0       
____________________________________________________________________________________________
depth_wise_conv51 (ConvolutionDepthwise) (1, 14, 14, 384)                3456     
____________________________________________________________________________________________
depth_wise_bn51 (EltwiseAdd)             (1, 14, 14, 384)                 0       
____________________________________________________________________________________________
dw_relubn51 (ReLU)                       (1, 14, 14, 384)                 0       
____________________________________________________________________________________________
contr_conv51 (Convolution3d)             (1, 14, 14, 96)                36864     
____________________________________________________________________________________________
contr_bn51 (EltwiseAdd)                  (1, 14, 14, 96)                  0       
____________________________________________________________________________________________
contr_relubn51 (ReLU)                    (1, 14, 14, 96)                  0       
____________________________________________________________________________________________
exp_conv52 (Convolution3d)               (1, 14, 14, 576)               55296     
____________________________________________________________________________________________
exp_bn52 (EltwiseAdd)                    (1, 14, 14, 576)                 0       
____________________________________________________________________________________________
bn0_relu_11 (ReLU)                       (1, 14, 14, 576)                 0       
____________________________________________________________________________________________
depth_wise_conv52 (ConvolutionDepthwise) (1, 14, 14, 576)                5184     
____________________________________________________________________________________________
depth_wise_bn52 (EltwiseAdd)             (1, 14, 14, 576)                 0       
____________________________________________________________________________________________
dw_relubn52 (ReLU)                       (1, 14, 14, 576)                 0       
____________________________________________________________________________________________
contr_conv52 (Convolution3d)             (1, 14, 14, 96)                55296     
____________________________________________________________________________________________
contr_bn52 (EltwiseAdd)                  (1, 14, 14, 96)                  0       
____________________________________________________________________________________________
contr_relubn52 (ReLU)                    (1, 14, 14, 96)                  0       
____________________________________________________________________________________________
add5_2 (EltwiseAdd)                      (1, 14, 14, 96)                  0       
____________________________________________________________________________________________
exp_conv53 (Convolution3d)               (1, 14, 14, 576)               55296     
____________________________________________________________________________________________
exp_bn53 (EltwiseAdd)                    (1, 14, 14, 576)                 0       
____________________________________________________________________________________________
bn0_relu_12 (ReLU)                       (1, 14, 14, 576)                 0       
____________________________________________________________________________________________
depth_wise_conv53 (ConvolutionDepthwise) (1, 14, 14, 576)                5184     
____________________________________________________________________________________________
depth_wise_bn53 (EltwiseAdd)             (1, 14, 14, 576)                 0       
____________________________________________________________________________________________
dw_relubn53 (ReLU)                       (1, 14, 14, 576)                 0       
____________________________________________________________________________________________
contr_conv53 (Convolution3d)             (1, 14, 14, 96)                55296     
____________________________________________________________________________________________
contr_bn53 (EltwiseAdd)                  (1, 14, 14, 96)                  0       
____________________________________________________________________________________________
contr_relubn53 (ReLU)                    (1, 14, 14, 96)                  0       
____________________________________________________________________________________________
add5_3 (EltwiseAdd)                      (1, 14, 14, 96)                  0       
____________________________________________________________________________________________
exp_conv61 (Convolution3d)               (1, 14, 14, 576)               55296     
____________________________________________________________________________________________
exp_bn61 (EltwiseAdd)                    (1, 14, 14, 576)                 0       
____________________________________________________________________________________________
bn0_relu_13 (ReLU)                       (1, 14, 14, 576)                 0       
____________________________________________________________________________________________
depth_wise_conv61 (ConvolutionDepthwise) (1, 7, 7, 576)                  5184     
____________________________________________________________________________________________
depth_wise_bn61 (EltwiseAdd)             (1, 7, 7, 576)                   0       
____________________________________________________________________________________________
dw_relubn61 (ReLU)                       (1, 7, 7, 576)                   0       
____________________________________________________________________________________________
contr_conv61 (Convolution3d)             (1, 7, 7, 160)                 92160     
____________________________________________________________________________________________
contr_bn61 (EltwiseAdd)                  (1, 7, 7, 160)                   0       
____________________________________________________________________________________________
contr_relubn61 (ReLU)                    (1, 7, 7, 160)                   0       
____________________________________________________________________________________________
exp_conv62 (Convolution3d)               (1, 7, 7, 960)                 153600    
____________________________________________________________________________________________
exp_bn62 (EltwiseAdd)                    (1, 7, 7, 960)                   0       
____________________________________________________________________________________________
bn0_relu_14 (ReLU)                       (1, 7, 7, 960)                   0       
____________________________________________________________________________________________
depth_wise_conv62 (ConvolutionDepthwise) (1, 7, 7, 960)                  8640     
____________________________________________________________________________________________
depth_wise_bn62 (EltwiseAdd)             (1, 7, 7, 960)                   0       
____________________________________________________________________________________________
dw_relubn62 (ReLU)                       (1, 7, 7, 960)                   0       
____________________________________________________________________________________________
contr_conv62 (Convolution3d)             (1, 7, 7, 160)                 153600    
____________________________________________________________________________________________
contr_bn62 (EltwiseAdd)                  (1, 7, 7, 160)                   0       
____________________________________________________________________________________________
contr_relubn62 (ReLU)                    (1, 7, 7, 160)                   0       
____________________________________________________________________________________________
add6_2 (EltwiseAdd)                      (1, 7, 7, 160)                   0       
____________________________________________________________________________________________
exp_conv63 (Convolution3d)               (1, 7, 7, 960)                 153600    
____________________________________________________________________________________________
exp_bn63 (EltwiseAdd)                    (1, 7, 7, 960)                   0       
____________________________________________________________________________________________
bn0_relu_15 (ReLU)                       (1, 7, 7, 960)                   0       
____________________________________________________________________________________________
depth_wise_conv63 (ConvolutionDepthwise) (1, 7, 7, 960)                  8640     
____________________________________________________________________________________________
depth_wise_bn63 (EltwiseAdd)             (1, 7, 7, 960)                   0       
____________________________________________________________________________________________
dw_relubn63 (ReLU)                       (1, 7, 7, 960)                   0       
____________________________________________________________________________________________
contr_conv63 (Convolution3d)             (1, 7, 7, 160)                 153600    
____________________________________________________________________________________________
contr_bn63 (EltwiseAdd)                  (1, 7, 7, 160)                   0       
____________________________________________________________________________________________
contr_relubn63 (ReLU)                    (1, 7, 7, 160)                   0       
____________________________________________________________________________________________
add6_3 (EltwiseAdd)                      (1, 7, 7, 160)                   0       
____________________________________________________________________________________________
exp_conv71 (Convolution3d)               (1, 7, 7, 960)                 153600    
____________________________________________________________________________________________
exp_bn71 (EltwiseAdd)                    (1, 7, 7, 960)                   0       
____________________________________________________________________________________________
bn0_relu_16 (ReLU)                       (1, 7, 7, 960)                   0       
____________________________________________________________________________________________
depth_wise_conv71 (ConvolutionDepthwise) (1, 7, 7, 960)                  8640     
____________________________________________________________________________________________
depth_wise_bn71 (EltwiseAdd)             (1, 7, 7, 960)                   0       
____________________________________________________________________________________________
dw_relubn71 (ReLU)                       (1, 7, 7, 960)                   0       
____________________________________________________________________________________________
contr_conv71 (Convolution3d)             (1, 7, 7, 320)                 307200    
____________________________________________________________________________________________
contr_bn71 (EltwiseAdd)                  (1, 7, 7, 320)                   0       
____________________________________________________________________________________________
contr_relubn71 (ReLU)                    (1, 7, 7, 320)                   0       
____________________________________________________________________________________________
conv8 (Convolution3d)                    (1, 7, 7, 1280)                409600    
____________________________________________________________________________________________
bn8_add_tensor (EltwiseAdd)              (1, 7, 7, 1280)                  0       
____________________________________________________________________________________________
 bn8_relu (ReLU)                         (1, 7, 7, 1280)                  0       
____________________________________________________________________________________________
avg_pool (AveragePooling)                (1, 1, 1, 1280)                  0       
____________________________________________________________________________________________
conv10 (Convolution3d)                   (1, 1, 1, 1000)               1280000    
____________________________________________________________________________________________
bn10_add_tensor (EltwiseAdd)             (1, 1, 1, 1000)                  0       
____________________________________________________________________________________________
bn10_rleu (ReLU)                         (1, 1, 1, 1000)                  0       
____________________________________________________________________________________________
======================================================
      Tiling operators of the network...
======================================================
Tiling  bn8_relu (ReLU).
  Tiled Tensor bn8_add_tensor/output0:
    original tensor shape: (1, 7, 7, 1280)
    tile shape (1, 16384), number of tiles: 4
  Tiled Tensor  bn8_relu/output0:
    original tensor shape: (1, 7, 7, 1280)
    tile shape (1, 16384), number of tiles: 4
Tiling add2_2 (EltwiseAdd).
  Tiled Tensor contr_relubn22/output0:
    original tensor shape: (1, 56, 56, 24)
    tile shape (1, 16384), number of tiles: 5
  Tiled Tensor contr_relubn21/output0:
    original tensor shape: (1, 56, 56, 24)
    tile shape (1, 16384), number of tiles: 5
  Tiled Tensor add2_2/output0:
    original tensor shape: (1, 56, 56, 24)
    tile shape (1, 16384), number of tiles: 5
Tiling add3_2 (EltwiseAdd).
  Tiled Tensor contr_relubn32/output0:
    original tensor shape: (1, 28, 28, 32)
    tile shape (1, 16384), number of tiles: 2
  Tiled Tensor contr_relubn31/output0:
    original tensor shape: (1, 28, 28, 32)
    tile shape (1, 16384), number of tiles: 2
  Tiled Tensor add3_2/output0:
    original tensor shape: (1, 28, 28, 32)
    tile shape (1, 16384), number of tiles: 2
Tiling add3_3 (EltwiseAdd).
  Tiled Tensor contr_relubn33/output0:
    original tensor shape: (1, 28, 28, 32)
    tile shape (1, 16384), number of tiles: 2
  Tiled Tensor add3_2/output0:
    original tensor shape: (1, 28, 28, 32)
    tile shape (1, 16384), number of tiles: 2
  Tiled Tensor add3_3/output0:
    original tensor shape: (1, 28, 28, 32)
    tile shape (1, 16384), number of tiles: 2
Tiling add4_2 (EltwiseAdd).
  Tiled Tensor contr_relubn42/output0:
    original tensor shape: (1, 14, 14, 64)
    tile shape (1, 12544), number of tiles: 1
  Tiled Tensor contr_relubn41/output0:
    original tensor shape: (1, 14, 14, 64)
    tile shape (1, 12544), number of tiles: 1
  Tiled Tensor add4_2/output0:
    original tensor shape: (1, 14, 14, 64)
    tile shape (1, 12544), number of tiles: 1
Tiling add4_3 (EltwiseAdd).
  Tiled Tensor contr_relubn43/output0:
    original tensor shape: (1, 14, 14, 64)
    tile shape (1, 12544), number of tiles: 1
  Tiled Tensor add4_2/output0:
    original tensor shape: (1, 14, 14, 64)
    tile shape (1, 12544), number of tiles: 1
  Tiled Tensor add4_3/output0:
    original tensor shape: (1, 14, 14, 64)
    tile shape (1, 12544), number of tiles: 1
Tiling add4_4 (EltwiseAdd).
  Tiled Tensor contr_relubn44/output0:
    original tensor shape: (1, 14, 14, 64)
    tile shape (1, 12544), number of tiles: 1
  Tiled Tensor add4_3/output0:
    original tensor shape: (1, 14, 14, 64)
    tile shape (1, 12544), number of tiles: 1
  Tiled Tensor add4_4/output0:
    original tensor shape: (1, 14, 14, 64)
    tile shape (1, 12544), number of tiles: 1
Tiling add5_2 (EltwiseAdd).
  Tiled Tensor contr_relubn52/output0:
    original tensor shape: (1, 14, 14, 96)
    tile shape (1, 16384), number of tiles: 2
  Tiled Tensor contr_relubn51/output0:
    original tensor shape: (1, 14, 14, 96)
    tile shape (1, 16384), number of tiles: 2
  Tiled Tensor add5_2/output0:
    original tensor shape: (1, 14, 14, 96)
    tile shape (1, 16384), number of tiles: 2
Tiling add5_3 (EltwiseAdd).
  Tiled Tensor contr_relubn53/output0:
    original tensor shape: (1, 14, 14, 96)
    tile shape (1, 16384), number of tiles: 2
  Tiled Tensor add5_2/output0:
    original tensor shape: (1, 14, 14, 96)
    tile shape (1, 16384), number of tiles: 2
  Tiled Tensor add5_3/output0:
    original tensor shape: (1, 14, 14, 96)
    tile shape (1, 16384), number of tiles: 2
Tiling add6_2 (EltwiseAdd).
  Tiled Tensor contr_relubn62/output0:
    original tensor shape: (1, 7, 7, 160)
    tile shape (1, 7840), number of tiles: 1
  Tiled Tensor contr_relubn61/output0:
    original tensor shape: (1, 7, 7, 160)
    tile shape (1, 7840), number of tiles: 1
  Tiled Tensor add6_2/output0:
    original tensor shape: (1, 7, 7, 160)
    tile shape (1, 7840), number of tiles: 1
Tiling add6_3 (EltwiseAdd).
  Tiled Tensor contr_relubn63/output0:
    original tensor shape: (1, 7, 7, 160)
    tile shape (1, 7840), number of tiles: 1
  Tiled Tensor add6_2/output0:
    original tensor shape: (1, 7, 7, 160)
    tile shape (1, 7840), number of tiles: 1
  Tiled Tensor add6_3/output0:
    original tensor shape: (1, 7, 7, 160)
    tile shape (1, 7840), number of tiles: 1
Tiling avg_pool (AveragePooling).
  Tiled Tensor  bn8_relu/output0:
    original tensor shape: (1, 7, 7, 1280)
    tile shape: (1, 7, 7, 320), number of tiles: 4
  Tiled Tensor avg_pool/output0:
    original tensor shape: (1, 1, 1, 1280)
    tile shape: (1, 1, 1, 1280), number of tiles: 1
Tiling bn0_add_tensor (EltwiseAdd).
  Tiled Tensor conv0/output0:
    original tensor shape: (1, 112, 112, 32)
    tile shape (1, 16384), number of tiles: 25
  Tiled Tensor data_1/input0:
    original tensor shape: (1, 112, 112, 32)
    tile shape (1, 16384), number of tiles: 25
  Tiled Tensor bn0_add_tensor/output0:
    original tensor shape: (1, 112, 112, 32)
    tile shape (1, 16384), number of tiles: 25
Tiling bn0_relu (ReLU).
  Tiled Tensor bn0_add_tensor/output0:
    original tensor shape: (1, 112, 112, 32)
    tile shape (1, 16384), number of tiles: 25
  Tiled Tensor bn0_relu/output0:
    original tensor shape: (1, 112, 112, 32)
    tile shape (1, 16384), number of tiles: 25
Tiling bn0_relu_1 (ReLU).
  Tiled Tensor exp_bn21/output0:
    original tensor shape: (1, 112, 112, 96)
    tile shape (1, 16384), number of tiles: 74
  Tiled Tensor bn0_relu_1/output0:
    original tensor shape: (1, 112, 112, 96)
    tile shape (1, 16384), number of tiles: 74
Tiling bn0_relu_10 (ReLU).
  Tiled Tensor exp_bn51/output0:
    original tensor shape: (1, 14, 14, 384)
    tile shape (1, 16384), number of tiles: 5
  Tiled Tensor bn0_relu_10/output0:
    original tensor shape: (1, 14, 14, 384)
    tile shape (1, 16384), number of tiles: 5
Tiling bn0_relu_11 (ReLU).
  Tiled Tensor exp_bn52/output0:
    original tensor shape: (1, 14, 14, 576)
    tile shape (1, 16384), number of tiles: 7
  Tiled Tensor bn0_relu_11/output0:
    original tensor shape: (1, 14, 14, 576)
    tile shape (1, 16384), number of tiles: 7
Tiling bn0_relu_12 (ReLU).
  Tiled Tensor exp_bn53/output0:
    original tensor shape: (1, 14, 14, 576)
    tile shape (1, 16384), number of tiles: 7
  Tiled Tensor bn0_relu_12/output0:
    original tensor shape: (1, 14, 14, 576)
    tile shape (1, 16384), number of tiles: 7
Tiling bn0_relu_13 (ReLU).
  Tiled Tensor exp_bn61/output0:
    original tensor shape: (1, 14, 14, 576)
    tile shape (1, 16384), number of tiles: 7
  Tiled Tensor bn0_relu_13/output0:
    original tensor shape: (1, 14, 14, 576)
    tile shape (1, 16384), number of tiles: 7
Tiling bn0_relu_14 (ReLU).
  Tiled Tensor exp_bn62/output0:
    original tensor shape: (1, 7, 7, 960)
    tile shape (1, 16384), number of tiles: 3
  Tiled Tensor bn0_relu_14/output0:
    original tensor shape: (1, 7, 7, 960)
    tile shape (1, 16384), number of tiles: 3
Tiling bn0_relu_15 (ReLU).
  Tiled Tensor exp_bn63/output0:
    original tensor shape: (1, 7, 7, 960)
    tile shape (1, 16384), number of tiles: 3
  Tiled Tensor bn0_relu_15/output0:
    original tensor shape: (1, 7, 7, 960)
    tile shape (1, 16384), number of tiles: 3
Tiling bn0_relu_16 (ReLU).
  Tiled Tensor exp_bn71/output0:
    original tensor shape: (1, 7, 7, 960)
    tile shape (1, 16384), number of tiles: 3
  Tiled Tensor bn0_relu_16/output0:
    original tensor shape: (1, 7, 7, 960)
    tile shape (1, 16384), number of tiles: 3
Tiling bn0_relu_2 (ReLU).
  Tiled Tensor exp_bn22/output0:
    original tensor shape: (1, 56, 56, 144)
    tile shape (1, 16384), number of tiles: 28
  Tiled Tensor bn0_relu_2/output0:
    original tensor shape: (1, 56, 56, 144)
    tile shape (1, 16384), number of tiles: 28
Tiling bn0_relu_3 (ReLU).
  Tiled Tensor exp_bn31/output0:
    original tensor shape: (1, 56, 56, 144)
    tile shape (1, 16384), number of tiles: 28
  Tiled Tensor bn0_relu_3/output0:
    original tensor shape: (1, 56, 56, 144)
    tile shape (1, 16384), number of tiles: 28
Tiling bn0_relu_4 (ReLU).
  Tiled Tensor exp_bn32/output0:
    original tensor shape: (1, 28, 28, 192)
    tile shape (1, 16384), number of tiles: 10
  Tiled Tensor bn0_relu_4/output0:
    original tensor shape: (1, 28, 28, 192)
    tile shape (1, 16384), number of tiles: 10
Tiling bn0_relu_5 (ReLU).
  Tiled Tensor exp_bn33/output0:
    original tensor shape: (1, 28, 28, 192)
    tile shape (1, 16384), number of tiles: 10
  Tiled Tensor bn0_relu_5/output0:
    original tensor shape: (1, 28, 28, 192)
    tile shape (1, 16384), number of tiles: 10
Tiling bn0_relu_6 (ReLU).
  Tiled Tensor exp_bn41/output0:
    original tensor shape: (1, 28, 28, 192)
    tile shape (1, 16384), number of tiles: 10
  Tiled Tensor bn0_relu_6/output0:
    original tensor shape: (1, 28, 28, 192)
    tile shape (1, 16384), number of tiles: 10
Tiling bn0_relu_7 (ReLU).
  Tiled Tensor exp_bn42/output0:
    original tensor shape: (1, 14, 14, 384)
    tile shape (1, 16384), number of tiles: 5
  Tiled Tensor bn0_relu_7/output0:
    original tensor shape: (1, 14, 14, 384)
    tile shape (1, 16384), number of tiles: 5
Tiling bn0_relu_8 (ReLU).
  Tiled Tensor exp_bn43/output0:
    original tensor shape: (1, 14, 14, 384)
    tile shape (1, 16384), number of tiles: 5
  Tiled Tensor bn0_relu_8/output0:
    original tensor shape: (1, 14, 14, 384)
    tile shape (1, 16384), number of tiles: 5
Tiling bn0_relu_9 (ReLU).
  Tiled Tensor exp_bn44/output0:
    original tensor shape: (1, 14, 14, 384)
    tile shape (1, 16384), number of tiles: 5
  Tiled Tensor bn0_relu_9/output0:
    original tensor shape: (1, 14, 14, 384)
    tile shape (1, 16384), number of tiles: 5
Tiling bn10_add_tensor (EltwiseAdd).
  Tiled Tensor conv10/output0:
    original tensor shape: (1, 1, 1, 1000)
    tile shape (1, 1000), number of tiles: 1
  Tiled Tensor data_105/input0:
    original tensor shape: (1, 1, 1, 1000)
    tile shape (1, 1000), number of tiles: 1
  Tiled Tensor bn10_add_tensor/output0:
    original tensor shape: (1, 1, 1, 1000)
    tile shape (1, 1000), number of tiles: 1
Tiling bn10_rleu (ReLU).
  Tiled Tensor bn10_add_tensor/output0:
    original tensor shape: (1, 1, 1, 1000)
    tile shape (1, 1000), number of tiles: 1
  Tiled Tensor bn10_rleu/output0:
    original tensor shape: (1, 1, 1, 1000)
    tile shape (1, 1000), number of tiles: 1
Tiling bn8_add_tensor (EltwiseAdd).
  Tiled Tensor conv8/output0:
    original tensor shape: (1, 7, 7, 1280)
    tile shape (1, 16384), number of tiles: 4
  Tiled Tensor data_103/input0:
    original tensor shape: (1, 7, 7, 1280)
    tile shape (1, 16384), number of tiles: 4
  Tiled Tensor bn8_add_tensor/output0:
    original tensor shape: (1, 7, 7, 1280)
    tile shape (1, 16384), number of tiles: 4
Tiling contr_bn11 (EltwiseAdd).
  Tiled Tensor contr_conv11/output0:
    original tensor shape: (1, 112, 112, 16)
    tile shape (1, 16384), number of tiles: 13
  Tiled Tensor data_5/input0:
    original tensor shape: (1, 112, 112, 16)
    tile shape (1, 16384), number of tiles: 13
  Tiled Tensor contr_bn11/output0:
    original tensor shape: (1, 112, 112, 16)
    tile shape (1, 16384), number of tiles: 13
Tiling contr_bn21 (EltwiseAdd).
  Tiled Tensor contr_conv21/output0:
    original tensor shape: (1, 56, 56, 24)
    tile shape (1, 16384), number of tiles: 5
  Tiled Tensor data_11/input0:
    original tensor shape: (1, 56, 56, 24)
    tile shape (1, 16384), number of tiles: 5
  Tiled Tensor contr_bn21/output0:
    original tensor shape: (1, 56, 56, 24)
    tile shape (1, 16384), number of tiles: 5
Tiling contr_bn22 (EltwiseAdd).
  Tiled Tensor contr_conv22/output0:
    original tensor shape: (1, 56, 56, 24)
    tile shape (1, 16384), number of tiles: 5
  Tiled Tensor data_17/input0:
    original tensor shape: (1, 56, 56, 24)
    tile shape (1, 16384), number of tiles: 5
  Tiled Tensor contr_bn22/output0:
    original tensor shape: (1, 56, 56, 24)
    tile shape (1, 16384), number of tiles: 5
Tiling contr_bn31 (EltwiseAdd).
  Tiled Tensor contr_conv31/output0:
    original tensor shape: (1, 28, 28, 32)
    tile shape (1, 16384), number of tiles: 2
  Tiled Tensor data_23/input0:
    original tensor shape: (1, 28, 28, 32)
    tile shape (1, 16384), number of tiles: 2
  Tiled Tensor contr_bn31/output0:
    original tensor shape: (1, 28, 28, 32)
    tile shape (1, 16384), number of tiles: 2
Tiling contr_bn32 (EltwiseAdd).
  Tiled Tensor contr_conv32/output0:
    original tensor shape: (1, 28, 28, 32)
    tile shape (1, 16384), number of tiles: 2
  Tiled Tensor data_29/input0:
    original tensor shape: (1, 28, 28, 32)
    tile shape (1, 16384), number of tiles: 2
  Tiled Tensor contr_bn32/output0:
    original tensor shape: (1, 28, 28, 32)
    tile shape (1, 16384), number of tiles: 2
Tiling contr_bn33 (EltwiseAdd).
  Tiled Tensor contr_conv33/output0:
    original tensor shape: (1, 28, 28, 32)
    tile shape (1, 16384), number of tiles: 2
  Tiled Tensor data_35/input0:
    original tensor shape: (1, 28, 28, 32)
    tile shape (1, 16384), number of tiles: 2
  Tiled Tensor contr_bn33/output0:
    original tensor shape: (1, 28, 28, 32)
    tile shape (1, 16384), number of tiles: 2
Tiling contr_bn41 (EltwiseAdd).
  Tiled Tensor contr_conv41/output0:
    original tensor shape: (1, 14, 14, 64)
    tile shape (1, 12544), number of tiles: 1
  Tiled Tensor data_41/input0:
    original tensor shape: (1, 14, 14, 64)
    tile shape (1, 12544), number of tiles: 1
  Tiled Tensor contr_bn41/output0:
    original tensor shape: (1, 14, 14, 64)
    tile shape (1, 12544), number of tiles: 1
Tiling contr_bn42 (EltwiseAdd).
  Tiled Tensor contr_conv42/output0:
    original tensor shape: (1, 14, 14, 64)
    tile shape (1, 12544), number of tiles: 1
  Tiled Tensor data_47/input0:
    original tensor shape: (1, 14, 14, 64)
    tile shape (1, 12544), number of tiles: 1
  Tiled Tensor contr_bn42/output0:
    original tensor shape: (1, 14, 14, 64)
    tile shape (1, 12544), number of tiles: 1
Tiling contr_bn43 (EltwiseAdd).
  Tiled Tensor contr_conv43/output0:
    original tensor shape: (1, 14, 14, 64)
    tile shape (1, 12544), number of tiles: 1
  Tiled Tensor data_53/input0:
    original tensor shape: (1, 14, 14, 64)
    tile shape (1, 12544), number of tiles: 1
  Tiled Tensor contr_bn43/output0:
    original tensor shape: (1, 14, 14, 64)
    tile shape (1, 12544), number of tiles: 1
Tiling contr_bn44 (EltwiseAdd).
  Tiled Tensor contr_conv44/output0:
    original tensor shape: (1, 14, 14, 64)
    tile shape (1, 12544), number of tiles: 1
  Tiled Tensor data_59/input0:
    original tensor shape: (1, 14, 14, 64)
    tile shape (1, 12544), number of tiles: 1
  Tiled Tensor contr_bn44/output0:
    original tensor shape: (1, 14, 14, 64)
    tile shape (1, 12544), number of tiles: 1
Tiling contr_bn51 (EltwiseAdd).
  Tiled Tensor contr_conv51/output0:
    original tensor shape: (1, 14, 14, 96)
    tile shape (1, 16384), number of tiles: 2
  Tiled Tensor data_65/input0:
    original tensor shape: (1, 14, 14, 96)
    tile shape (1, 16384), number of tiles: 2
  Tiled Tensor contr_bn51/output0:
    original tensor shape: (1, 14, 14, 96)
    tile shape (1, 16384), number of tiles: 2
Tiling contr_bn52 (EltwiseAdd).
  Tiled Tensor contr_conv52/output0:
    original tensor shape: (1, 14, 14, 96)
    tile shape (1, 16384), number of tiles: 2
  Tiled Tensor data_71/input0:
    original tensor shape: (1, 14, 14, 96)
    tile shape (1, 16384), number of tiles: 2
  Tiled Tensor contr_bn52/output0:
    original tensor shape: (1, 14, 14, 96)
    tile shape (1, 16384), number of tiles: 2
Tiling contr_bn53 (EltwiseAdd).
  Tiled Tensor contr_conv53/output0:
    original tensor shape: (1, 14, 14, 96)
    tile shape (1, 16384), number of tiles: 2
  Tiled Tensor data_77/input0:
    original tensor shape: (1, 14, 14, 96)
    tile shape (1, 16384), number of tiles: 2
  Tiled Tensor contr_bn53/output0:
    original tensor shape: (1, 14, 14, 96)
    tile shape (1, 16384), number of tiles: 2
Tiling contr_bn61 (EltwiseAdd).
  Tiled Tensor contr_conv61/output0:
    original tensor shape: (1, 7, 7, 160)
    tile shape (1, 7840), number of tiles: 1
  Tiled Tensor data_83/input0:
    original tensor shape: (1, 7, 7, 160)
    tile shape (1, 7840), number of tiles: 1
  Tiled Tensor contr_bn61/output0:
    original tensor shape: (1, 7, 7, 160)
    tile shape (1, 7840), number of tiles: 1
Tiling contr_bn62 (EltwiseAdd).
  Tiled Tensor contr_conv62/output0:
    original tensor shape: (1, 7, 7, 160)
    tile shape (1, 7840), number of tiles: 1
  Tiled Tensor data_89/input0:
    original tensor shape: (1, 7, 7, 160)
    tile shape (1, 7840), number of tiles: 1
  Tiled Tensor contr_bn62/output0:
    original tensor shape: (1, 7, 7, 160)
    tile shape (1, 7840), number of tiles: 1
Tiling contr_bn63 (EltwiseAdd).
  Tiled Tensor contr_conv63/output0:
    original tensor shape: (1, 7, 7, 160)
    tile shape (1, 7840), number of tiles: 1
  Tiled Tensor data_95/input0:
    original tensor shape: (1, 7, 7, 160)
    tile shape (1, 7840), number of tiles: 1
  Tiled Tensor contr_bn63/output0:
    original tensor shape: (1, 7, 7, 160)
    tile shape (1, 7840), number of tiles: 1
Tiling contr_bn71 (EltwiseAdd).
  Tiled Tensor contr_conv71/output0:
    original tensor shape: (1, 7, 7, 320)
    tile shape (1, 15680), number of tiles: 1
  Tiled Tensor data_101/input0:
    original tensor shape: (1, 7, 7, 320)
    tile shape (1, 15680), number of tiles: 1
  Tiled Tensor contr_bn71/output0:
    original tensor shape: (1, 7, 7, 320)
    tile shape (1, 15680), number of tiles: 1
Tiling contr_conv11 (Convolution3d).
  Tiled Tensor dw_relubn11/output0:
    original tensor shape: (1, 112, 112, 32)
    tile shape: (1, 4, 112, 32), number of tiles: 28
  Tiled Tensor data_4/input0:
    original tensor shape: (16, 1, 1, 32)
    tile shape: (16, 1, 1, 32), number of tiles: 1
  Tiled Tensor contr_conv11/output0(rowwise):
    original tensor shape: (1, 112, 112, 16)
    number of tiles: 28
Tiling contr_conv21 (Convolution3d).
  Tiled Tensor dw_relubn21/output0:
    original tensor shape: (1, 56, 56, 96)
    tile shape: (1, 3, 56, 96), number of tiles: 19
  Tiled Tensor data_10/input0:
    original tensor shape: (24, 1, 1, 96)
    tile shape: (24, 1, 1, 96), number of tiles: 1
  Tiled Tensor contr_conv21/output0(rowwise):
    original tensor shape: (1, 56, 56, 24)
    number of tiles: 19
Tiling contr_conv22 (Convolution3d).
  Tiled Tensor dw_relubn22/output0:
    original tensor shape: (1, 56, 56, 144)
    tile shape: (1, 2, 56, 144), number of tiles: 28
  Tiled Tensor data_16/input0:
    original tensor shape: (24, 1, 1, 144)
    tile shape: (24, 1, 1, 144), number of tiles: 1
  Tiled Tensor contr_conv22/output0(rowwise):
    original tensor shape: (1, 56, 56, 24)
    number of tiles: 28
Tiling contr_conv31 (Convolution3d).
  Tiled Tensor dw_relubn31/output0:
    original tensor shape: (1, 28, 28, 144)
    tile shape: (1, 4, 28, 144), number of tiles: 7
  Tiled Tensor data_22/input0:
    original tensor shape: (32, 1, 1, 144)
    tile shape: (32, 1, 1, 144), number of tiles: 1
  Tiled Tensor contr_conv31/output0(rowwise):
    original tensor shape: (1, 28, 28, 32)
    number of tiles: 7
Tiling contr_conv32 (Convolution3d).
  Tiled Tensor dw_relubn32/output0:
    original tensor shape: (1, 28, 28, 192)
    tile shape: (1, 3, 28, 192), number of tiles: 10
  Tiled Tensor data_28/input0:
    original tensor shape: (32, 1, 1, 192)
    tile shape: (32, 1, 1, 192), number of tiles: 1
  Tiled Tensor contr_conv32/output0(rowwise):
    original tensor shape: (1, 28, 28, 32)
    number of tiles: 10
Tiling contr_conv33 (Convolution3d).
  Tiled Tensor dw_relubn33/output0:
    original tensor shape: (1, 28, 28, 192)
    tile shape: (1, 3, 28, 192), number of tiles: 10
  Tiled Tensor data_34/input0:
    original tensor shape: (32, 1, 1, 192)
    tile shape: (32, 1, 1, 192), number of tiles: 1
  Tiled Tensor contr_conv33/output0(rowwise):
    original tensor shape: (1, 28, 28, 32)
    number of tiles: 10
Tiling contr_conv41 (Convolution3d).
  Tiled Tensor dw_relubn41/output0:
    original tensor shape: (1, 14, 14, 192)
    tile shape: (1, 14, 14, 64), number of tiles: 3
  Tiled Tensor data_40/input0:
    original tensor shape: (64, 1, 1, 192)
    tile shape: (64, 1, 1, 64), number of tiles: 3
  Tiled Tensor contr_conv41/output0:
    original tensor shape: (1, 14, 14, 64)
    tile shape: (1, 14, 14, 64), number of tiles: 1
Tiling contr_conv42 (Convolution3d).
  Tiled Tensor dw_relubn42/output0:
    original tensor shape: (1, 14, 14, 384)
    tile shape: (1, 14, 14, 64), number of tiles: 6
[...]
683863462013: system.acc0_datapath: Mapping vaddr 0x7961240 -> paddr 0xab04240.
683863462013: system.acc0_datapath: Inserting TLB entry vpn 0x7961000 -> ppn 0xab04000.
683863462013: system.acc0_datapath: Mapping vaddr 0x7962240 -> paddr 0xab05240.
683863462013: system.acc0_datapath: Inserting TLB entry vpn 0x7962000 -> ppn 0xab05000.
683863462013: system.acc0_datapath: Mapping vaddr 0x7963240 -> paddr 0xab06240.
683863462013: system.acc0_datapath: Inserting TLB entry vpn 0x7963000 -> ppn 0xab06000.
683863853719: system.acc0_datapath: Inserting array label mapping host_results -> vpn 0x7a1bb40, size 32768.
683863853719: system.acc0_datapath: Mapping vaddr 0x7a1bb40 -> paddr 0xabbeb40.
683863853719: system.acc0_datapath: Inserting TLB entry vpn 0x7a1b000 -> ppn 0xabbe000.
683863853719: system.acc0_datapath: Mapping vaddr 0x7a1cb40 -> paddr 0xabbfb40.
683863853719: system.acc0_datapath: Inserting TLB entry vpn 0x7a1c000 -> ppn 0xabbf000.
683863853719: system.acc0_datapath: Mapping vaddr 0x7a1db40 -> paddr 0xabc0b40.
683863853719: system.acc0_datapath: Inserting TLB entry vpn 0x7a1d000 -> ppn 0xabc0000.
683863853719: system.acc0_datapath: Mapping vaddr 0x7a1eb40 -> paddr 0xabc1b40.
683863853719: system.acc0_datapath: Inserting TLB entry vpn 0x7a1e000 -> ppn 0xabc1000.
683863853719: system.acc0_datapath: Mapping vaddr 0x7a1fb40 -> paddr 0xabc2b40.
683863853719: system.acc0_datapath: Inserting TLB entry vpn 0x7a1f000 -> ppn 0xabc2000.
683863853719: system.acc0_datapath: Mapping vaddr 0x7a20b40 -> paddr 0xabc3b40.
683863853719: system.acc0_datapath: Inserting TLB entry vpn 0x7a20000 -> ppn 0xabc3000.
683863853719: system.acc0_datapath: Mapping vaddr 0x7a21b40 -> paddr 0xabc4b40.
683863853719: system.acc0_datapath: Inserting TLB entry vpn 0x7a21000 -> ppn 0xabc4000.
683863853719: system.acc0_datapath: Mapping vaddr 0x7a22b40 -> paddr 0xabc5b40.
683863853719: system.acc0_datapath: Inserting TLB entry vpn 0x7a22000 -> ppn 0xabc5000.
683863853719: system.acc0_datapath: Mapping vaddr 0x7a23b40 -> paddr 0xabc6b40.
683863853719: system.acc0_datapath: Inserting TLB entry vpn 0x7a23000 -> ppn 0xabc6000.
 invoking aladdin 
683864312232: system.acc0_datapath: Activating accelerator id 3
-------------------------------
      Generating DDDG          
-------------------------------
-------------------------------
Num of Nodes: 66219
Num of Edges: 170378
Num of Reg Edges: 99045
Num of MEM Edges: 5120
Num of Control Edges: 66218
-------------------------------
-------------------------------
    Initializing BaseDatapath      
-------------------------------
 Top level: smv_activation_fun_nc_vec_fxp
=============================================
      Optimizing...            ./outputs/nnet_fwd
=============================================
-------------------------------
  Remove PHI and Convert Nodes 
-------------------------------
  Removing 51817 edges.
  Adding 37247 new edges.
  Removing 63 isolated nodes.
-------------------------------
  Remove Induction Dependence  
-------------------------------
-------------------------------
       Init Base Address       
-------------------------------
-------------------------------
     Init DMA Base Address     
-------------------------------
-------------------------------
      ScratchPad Partition     
-------------------------------
-------------------------------
         Loop Flatten          
-------------------------------
  Removing 0 isolated nodes.
  Removing 0 isolated nodes.
-------------------------------
         Loop Unrolling        
-------------------------------
  Adding 113395 new edges.
  Removing 5376 isolated nodes.
  Removing 5152 isolated nodes.
-------------------------------
          Load Buffer          
-------------------------------
  Adding 0 new edges.
  Removing 0 edges.
  Removing 0 isolated nodes.
-------------------------------
          Store Buffer         
-------------------------------
  Adding 0 new edges.
  Removing 0 isolated nodes.
  Removing 0 isolated nodes.
-------------------------------
    Remove Repeated Stores     
-------------------------------
-------------------------------
      Memory Ambiguation       
-------------------------------
  Adding 0 new edges.
-------------------------------
     Tree Height Reduction     
-------------------------------
  Removing 0 edges.
  Adding 0 new edges.
  Removing 0 isolated nodes.
-------------------------------
  Fuse register loads/stores   
-------------------------------
  Removing 0 edges.
  Adding 0 new edges.
  Removing 0 isolated nodes.
-------------------------------
   Fuse consecutive branches   
-------------------------------
  Removing 33 edges.
  Adding 33 new edges.
  Removing 0 isolated nodes.
-------------------------------
      Per Loop Pipelining      
-------------------------------
  Adding 32821 new edges.
  Removing 33882 edges.
  Removing 0 isolated nodes.
-------------------------------
         Loop Pipelining        
-------------------------------
=============================================
      Scheduling...            ./outputs/nnet_fwd
=============================================
  Total connected nodes: 49290
  Total edges: 219189
=============================================
===============================
        Aladdin Results        
===============================
Running : ./outputs/nnet_fwd
Top level function: smv_activation_fun_nc_vec_fxp
Cycle : 8546 cycles
Upsampled Cycle : 0 cycles
Avg Power: 4915.74 mW
Idle FU Cycles: 8496 cycles
Avg FU Power: 3.7725 mW
Avg FU Dynamic Power: 1.31583 mW
Avg FU leakage Power: 2.45667 mW
Avg MEM Power: 4911.97 mW
Avg MEM Dynamic Power: 4333.24 mW
Avg MEM Leakage Power: 578.732 mW
Total Area: 3.83569e+07 uM^2
FU Area: 200162 uM^2
MEM Area: 3.81568e+07 uM^2
Num of Bit-wise Operators (32-bit): 3
Num of Shifters (32-bit): 13
Num of Registers (32-bit): 11
===============================
        Aladdin Results        
===============================
683872858000: system.acc0_datapath: Accelerator completed.
683872858000: system.acc0_datapath: Elapsed host seconds 1.60.
683872858000: system.acc0_datapath: Sent finished signal.
683872870001: system.acc0_datapath: cacheRespCallback for control signal access: 0xcf9d190
683872872000: system.acc0_datapath: Woken up the CPU thread context.
Input: 23, output: 23
683874058060: system.acc0_datapath: Inserting array label mapping host_inputs -> vpn 0x79632a0, size 32768.
683874058060: system.acc0_datapath: Mapping vaddr 0x79632a0 -> paddr 0xab062a0.
683874058060: system.acc0_datapath: Inserting TLB entry vpn 0x7963000 -> ppn 0xab06000.
683874058060: system.acc0_datapath: Mapping vaddr 0x79642a0 -> paddr 0xab072a0.
683874058060: system.acc0_datapath: Inserting TLB entry vpn 0x7964000 -> ppn 0xab07000.
683874058060: system.acc0_datapath: Mapping vaddr 0x79652a0 -> paddr 0xab082a0.
683874058060: system.acc0_datapath: Inserting TLB entry vpn 0x7965000 -> ppn 0xab08000.
683874058060: system.acc0_datapath: Mapping vaddr 0x79662a0 -> paddr 0xab092a0.
683874058060: system.acc0_datapath: Inserting TLB entry vpn 0x7966000 -> ppn 0xab09000.
683874058060: system.acc0_datapath: Mapping vaddr 0x79672a0 -> paddr 0xab0a2a0.
683874058060: system.acc0_datapath: Inserting TLB entry vpn 0x7967000 -> ppn 0xab0a000.
683874058060: system.acc0_datapath: Mapping vaddr 0x79682a0 -> paddr 0xab0b2a0.
683874058060: system.acc0_datapath: Inserting TLB entry vpn 0x7968000 -> ppn 0xab0b000.
683874058060: system.acc0_datapath: Mapping vaddr 0x79692a0 -> paddr 0xab0c2a0.
683874058060: system.acc0_datapath: Inserting TLB entry vpn 0x7969000 -> ppn 0xab0c000.
683874058060: system.acc0_datapath: Mapping vaddr 0x796a2a0 -> paddr 0xab0d2a0.
683874058060: system.acc0_datapath: Inserting TLB entry vpn 0x796a000 -> ppn 0xab0d000.
683874058060: system.acc0_datapath: Mapping vaddr 0x796b2a0 -> paddr 0xab0e2a0.
683874058060: system.acc0_datapath: Inserting TLB entry vpn 0x796b000 -> ppn 0xab0e000.
683874476032: system.acc0_datapath: Inserting array label mapping host_results -> vpn 0x7a23ba0, size 32768.
683874476032: system.acc0_datapath: Mapping vaddr 0x7a23ba0 -> paddr 0xabc6ba0.
683874476032: system.acc0_datapath: Inserting TLB entry vpn 0x7a23000 -> ppn 0xabc6000.
683874476032: system.acc0_datapath: Mapping vaddr 0x7a24ba0 -> paddr 0xabc7ba0.
683874476032: system.acc0_datapath: Inserting TLB entry vpn 0x7a24000 -> ppn 0xabc7000.
683874476032: system.acc0_datapath: Mapping vaddr 0x7a25ba0 -> paddr 0xabc8ba0.
683874476032: system.acc0_datapath: Inserting TLB entry vpn 0x7a25000 -> ppn 0xabc8000.
683874476032: system.acc0_datapath: Mapping vaddr 0x7a26ba0 -> paddr 0xabc9ba0.
683874476032: system.acc0_datapath: Inserting TLB entry vpn 0x7a26000 -> ppn 0xabc9000.
683874476032: system.acc0_datapath: Mapping vaddr 0x7a27ba0 -> paddr 0xabcaba0.
683874476032: system.acc0_datapath: Inserting TLB entry vpn 0x7a27000 -> ppn 0xabca000.
683874476032: system.acc0_datapath: Mapping vaddr 0x7a28ba0 -> paddr 0xabcbba0.
683874476032: system.acc0_datapath: Inserting TLB entry vpn 0x7a28000 -> ppn 0xabcb000.
683874476032: system.acc0_datapath: Mapping vaddr 0x7a29ba0 -> paddr 0xabccba0.
683874476032: system.acc0_datapath: Inserting TLB entry vpn 0x7a29000 -> ppn 0xabcc000.
683874476032: system.acc0_datapath: Mapping vaddr 0x7a2aba0 -> paddr 0xabcdba0.
683874476032: system.acc0_datapath: Inserting TLB entry vpn 0x7a2a000 -> ppn 0xabcd000.
683874476032: system.acc0_datapath: Mapping vaddr 0x7a2bba0 -> paddr 0xabceba0.
683874476032: system.acc0_datapath: Inserting TLB entry vpn 0x7a2b000 -> ppn 0xabce000.
 invoking aladdin 
683874940255: system.acc0_datapath: Activating accelerator id 3
-------------------------------
      Generating DDDG          
-------------------------------
-------------------------------
Num of Nodes: 66219
Num of Edges: 170378
Num of Reg Edges: 99045
Num of MEM Edges: 5120
Num of Control Edges: 66218
-------------------------------
-------------------------------
    Initializing BaseDatapath      
-------------------------------
 Top level: smv_activation_fun_nc_vec_fxp
=============================================
      Optimizing...            ./outputs/nnet_fwd
=============================================
-------------------------------
  Remove PHI and Convert Nodes 
-------------------------------
  Removing 51817 edges.
  Adding 37247 new edges.
  Removing 63 isolated nodes.
-------------------------------
  Remove Induction Dependence  
-------------------------------
-------------------------------
       Init Base Address       
-------------------------------
-------------------------------
     Init DMA Base Address     
-------------------------------
-------------------------------
      ScratchPad Partition     
-------------------------------
-------------------------------
         Loop Flatten          
-------------------------------
  Removing 0 isolated nodes.
  Removing 0 isolated nodes.
-------------------------------
         Loop Unrolling        
-------------------------------
  Adding 113395 new edges.
  Removing 5376 isolated nodes.
  Removing 5152 isolated nodes.
-------------------------------
          Load Buffer          
-------------------------------
  Adding 0 new edges.
  Removing 0 edges.
  Removing 0 isolated nodes.
-------------------------------
          Store Buffer         
-------------------------------
  Adding 0 new edges.
  Removing 0 isolated nodes.
  Removing 0 isolated nodes.
-------------------------------
    Remove Repeated Stores     
-------------------------------
-------------------------------
      Memory Ambiguation       
-------------------------------
  Adding 0 new edges.
-------------------------------
     Tree Height Reduction     
-------------------------------
  Removing 0 edges.
  Adding 0 new edges.
  Removing 0 isolated nodes.
-------------------------------
  Fuse register loads/stores   
-------------------------------
  Removing 0 edges.
  Adding 0 new edges.
  Removing 0 isolated nodes.
-------------------------------
   Fuse consecutive branches   
-------------------------------
  Removing 33 edges.
  Adding 33 new edges.
  Removing 0 isolated nodes.
-------------------------------
      Per Loop Pipelining      
-------------------------------
  Adding 32821 new edges.
  Removing 33882 edges.
  Removing 0 isolated nodes.
-------------------------------
         Loop Pipelining        
-------------------------------
=============================================
      Scheduling...            ./outputs/nnet_fwd
=============================================
  Total connected nodes: 49290
  Total edges: 219189
=============================================
===============================
        Aladdin Results        
===============================
Running : ./outputs/nnet_fwd
Top level function: smv_activation_fun_nc_vec_fxp
Cycle : 8546 cycles
Upsampled Cycle : 0 cycles
Avg Power: 4943.49 mW
Idle FU Cycles: 8496 cycles
Avg FU Power: 3.7725 mW
Avg FU Dynamic Power: 1.31583 mW
Avg FU leakage Power: 2.45667 mW
Avg MEM Power: 4939.72 mW
Avg MEM Dynamic Power: 4360.98 mW
Avg MEM Leakage Power: 578.732 mW
Total Area: 3.83569e+07 uM^2
FU Area: 200162 uM^2
MEM Area: 3.81568e+07 uM^2
Num of Bit-wise Operators (32-bit): 3
Num of Shifters (32-bit): 13
Num of Registers (32-bit): 11
===============================
        Aladdin Results        
===============================
683883486000: system.acc0_datapath: Accelerator completed.
683883486000: system.acc0_datapath: Elapsed host seconds 1.59.
683883486000: system.acc0_datapath: Sent finished signal.
683883498001: system.acc0_datapath: cacheRespCallback for control signal access: 0xcf9d190
683883500000: system.acc0_datapath: Woken up the CPU thread context.
Input: 24, output: 24
683884879652: system.acc0_datapath: Inserting array label mapping host_inputs -> vpn 0x78444a0, size 16384.
683884879652: system.acc0_datapath: Mapping vaddr 0x78444a0 -> paddr 0xa9e74a0.
683884879652: system.acc0_datapath: Inserting TLB entry vpn 0x7844000 -> ppn 0xa9e7000.
683884879652: system.acc0_datapath: Mapping vaddr 0x78454a0 -> paddr 0xa9e84a0.
683884879652: system.acc0_datapath: Inserting TLB entry vpn 0x7845000 -> ppn 0xa9e8000.
683884879652: system.acc0_datapath: Mapping vaddr 0x78464a0 -> paddr 0xa9e94a0.
683884879652: system.acc0_datapath: Inserting TLB entry vpn 0x7846000 -> ppn 0xa9e9000.
683884879652: system.acc0_datapath: Mapping vaddr 0x78474a0 -> paddr 0xa9ea4a0.
683884879652: system.acc0_datapath: Inserting TLB entry vpn 0x7847000 -> ppn 0xa9ea000.
683884879652: system.acc0_datapath: Mapping vaddr 0x78484a0 -> paddr 0xa9eb4a0.
683884879652: system.acc0_datapath: Inserting TLB entry vpn 0x7848000 -> ppn 0xa9eb000.
683885271358: system.acc0_datapath: Inserting array label mapping host_results -> vpn 0x7876ca0, size 16384.
683885271358: system.acc0_datapath: Mapping vaddr 0x7876ca0 -> paddr 0xaa19ca0.
683885271358: system.acc0_datapath: Inserting TLB entry vpn 0x7876000 -> ppn 0xaa19000.
683885271358: system.acc0_datapath: Mapping vaddr 0x7877ca0 -> paddr 0xaa1aca0.
683885271358: system.acc0_datapath: Inserting TLB entry vpn 0x7877000 -> ppn 0xaa1a000.
683885271358: system.acc0_datapath: Mapping vaddr 0x7878ca0 -> paddr 0xaa1bca0.
683885271358: system.acc0_datapath: Inserting TLB entry vpn 0x7878000 -> ppn 0xaa1b000.
683885271358: system.acc0_datapath: Mapping vaddr 0x7879ca0 -> paddr 0xaa1cca0.
683885271358: system.acc0_datapath: Inserting TLB entry vpn 0x7879000 -> ppn 0xaa1c000.
683885271358: system.acc0_datapath: Mapping vaddr 0x787aca0 -> paddr 0xaa1dca0.
683885271358: system.acc0_datapath: Inserting TLB entry vpn 0x787a000 -> ppn 0xaa1d000.
 invoking aladdin 
683885729871: system.acc0_datapath: Activating accelerator id 3
-------------------------------
      Generating DDDG          
-------------------------------
-------------------------------
Num of Nodes: 33151
Num of Edges: 85262
Num of Reg Edges: 49557
Num of MEM Edges: 2560
Num of Control Edges: 33150
-------------------------------
-------------------------------
    Initializing BaseDatapath      
-------------------------------
 Top level: smv_activation_fun_nc_vec_fxp
=============================================
      Optimizing...            ./outputs/nnet_fwd
=============================================
-------------------------------
  Remove PHI and Convert Nodes 
-------------------------------
  Removing 25933 edges.
  Adding 18631 new edges.
  Removing 39 isolated nodes.
-------------------------------
  Remove Induction Dependence  
-------------------------------
-------------------------------
       Init Base Address       
-------------------------------
-------------------------------
     Init DMA Base Address     
-------------------------------
-------------------------------
      ScratchPad Partition     
-------------------------------
-------------------------------
         Loop Flatten          
-------------------------------
  Removing 0 isolated nodes.
  Removing 0 isolated nodes.
-------------------------------
         Loop Unrolling        
-------------------------------
  Adding 56743 new edges.
  Removing 2688 isolated nodes.
  Removing 2464 isolated nodes.
-------------------------------
          Load Buffer          
-------------------------------
  Adding 0 new edges.
  Removing 0 edges.
  Removing 0 isolated nodes.
-------------------------------
          Store Buffer         
-------------------------------
  Adding 0 new edges.
  Removing 0 isolated nodes.
  Removing 0 isolated nodes.
-------------------------------
    Remove Repeated Stores     
-------------------------------
-------------------------------
      Memory Ambiguation       
-------------------------------
  Adding 0 new edges.
-------------------------------
     Tree Height Reduction     
-------------------------------
  Removing 0 edges.
  Adding 0 new edges.
  Removing 0 isolated nodes.
-------------------------------
  Fuse register loads/stores   
-------------------------------
  Removing 0 edges.
  Adding 0 new edges.
  Removing 0 isolated nodes.
-------------------------------
   Fuse consecutive branches   
-------------------------------
  Removing 17 edges.
  Adding 17 new edges.
  Removing 0 isolated nodes.
-------------------------------
      Per Loop Pipelining      
-------------------------------
  Adding 16493 new edges.
  Removing 17054 edges.
  Removing 0 isolated nodes.
-------------------------------
         Loop Pipelining        
-------------------------------
=============================================
      Scheduling...            ./outputs/nnet_fwd
=============================================
  Total connected nodes: 24782
  Total edges: 110089
=============================================
===============================
        Aladdin Results        
===============================
Running : ./outputs/nnet_fwd
Top level function: smv_activation_fun_nc_vec_fxp
Cycle : 4278 cycles
Upsampled Cycle : 0 cycles
Avg Power: 9321.99 mW
Idle FU Cycles: 4252 cycles
Avg FU Power: 3.76903 mW
Avg FU Dynamic Power: 1.31473 mW
Avg FU leakage Power: 2.4543 mW
Avg MEM Power: 9318.22 mW
Avg MEM Dynamic Power: 8739.49 mW
Avg MEM Leakage Power: 578.732 mW
Total Area: 3.83568e+07 uM^2
FU Area: 199970 uM^2
MEM Area: 3.81568e+07 uM^2
Num of Bit-wise Operators (32-bit): 3
Num of Shifters (32-bit): 13
Num of Registers (32-bit): 10
===============================
        Aladdin Results        
===============================
683890007000: system.acc0_datapath: Accelerator completed.
683890007000: system.acc0_datapath: Elapsed host seconds 0.78.
683890007000: system.acc0_datapath: Sent finished signal.
683890019001: system.acc0_datapath: cacheRespCallback for control signal access: 0xcf9d190
683890021000: system.acc0_datapath: Woken up the CPU thread context.
updating children 
 children nodes updated 
Scheduling contr_conv11 (Convolution3d).
contr_conv11 running 
